<?xml version="1.0" encoding="UTF-8"?>

<!-- generated on 2024-05-09 15:12:25 by Eclipse SUMO netconvert Version 1.11.0
<configuration xmlns:xsi="http://www.w3.org/2001/XMLSchema-instance" xsi:noNamespaceSchemaLocation="http://sumo.dlr.de/xsd/netconvertConfiguration.xsd">

    <input>
        <type-files value="/home/veins/Desktop/projet_TER/sumo-1.11.0/data/typemap/osmNetconvert.typ.xml"/>
        <osm-files value="paris.osm.xml"/>
    </input>

    <output>
        <output-file value="paris.net.xml"/>
    </output>

    <projection>
        <proj.utm value="true"/>
    </projection>

    <processing>
        <geometry.remove value="true"/>
        <roundabouts.guess value="true"/>
    </processing>

    <tls_building>
        <tls.discard-simple value="true"/>
        <tls.join value="true"/>
        <tls.guess-signals value="true"/>
    </tls_building>

    <ramp_guessing>
        <ramps.guess value="true"/>
    </ramp_guessing>

    <edge_removal>
        <remove-edges.by-vclass value="rail,rail_electric,bicycle,pedestrian"/>
        <remove-edges.by-type value="rail,rail_urban,rail_electric,railway.tram,railway.subway"/>
    </edge_removal>

    <junctions>
        <no-internal-links value="true"/>
        <junctions.join value="true"/>
    </junctions>

    <report>
        <aggregate-warnings value="5"/>
    </report>

</configuration>
-->

<net version="1.9" junctionCornerDetail="5" limitTurnSpeed="5.50" xmlns:xsi="http://www.w3.org/2001/XMLSchema-instance" xsi:noNamespaceSchemaLocation="http://sumo.dlr.de/xsd/net_file.xsd">

    <location netOffset="-447525.83,-5412106.35" convBoundary="0.00,0.00,4951.51,1979.37" origBoundary="2.239780,48.832513,2.368303,48.886432" projParameter="+proj=utm +zone=31 +ellps=WGS84 +datum=WGS84 +units=m +no_defs"/>

    <type id="highway.bridleway" priority="1" numLanes="1" speed="2.78" allow="pedestrian" oneway="1" width="2.00"/>
    <type id="highway.bus_guideway" priority="1" numLanes="1" speed="27.78" allow="bus" oneway="1"/>
    <type id="highway.cycleway" priority="1" numLanes="1" speed="8.33" allow="bicycle" oneway="0" width="1.00"/>
    <type id="highway.footway" priority="1" numLanes="1" speed="2.78" allow="pedestrian" oneway="1" width="2.00"/>
    <type id="highway.ford" priority="1" numLanes="1" speed="2.78" allow="army" oneway="0"/>
    <type id="highway.living_street" priority="2" numLanes="1" speed="2.78" disallow="tram rail_urban rail rail_electric rail_fast ship" oneway="0"/>
    <type id="highway.motorway" priority="14" numLanes="2" speed="39.44" allow="private emergency authority army vip passenger hov taxi bus coach delivery truck trailer motorcycle evehicle custom1 custom2" oneway="1"/>
    <type id="highway.motorway_link" priority="9" numLanes="1" speed="22.22" allow="private emergency authority army vip passenger hov taxi bus coach delivery truck trailer motorcycle evehicle custom1 custom2" oneway="1"/>
    <type id="highway.path" priority="1" numLanes="1" speed="2.78" allow="pedestrian bicycle" oneway="0" width="2.00"/>
    <type id="highway.pedestrian" priority="1" numLanes="1" speed="2.78" allow="pedestrian" oneway="1" width="2.00"/>
    <type id="highway.primary" priority="12" numLanes="2" speed="27.78" disallow="tram rail_urban rail rail_electric rail_fast ship" oneway="0"/>
    <type id="highway.primary_link" priority="7" numLanes="1" speed="22.22" disallow="tram rail_urban rail rail_electric rail_fast ship" oneway="0"/>
    <type id="highway.raceway" priority="15" numLanes="2" speed="83.33" allow="vip" oneway="0"/>
    <type id="highway.residential" priority="3" numLanes="1" speed="13.89" disallow="tram rail_urban rail rail_electric rail_fast ship" oneway="0"/>
    <type id="highway.secondary" priority="11" numLanes="1" speed="27.78" disallow="tram rail_urban rail rail_electric rail_fast ship" oneway="0"/>
    <type id="highway.secondary_link" priority="6" numLanes="1" speed="22.22" disallow="tram rail_urban rail rail_electric rail_fast ship" oneway="0"/>
    <type id="highway.service" priority="1" numLanes="1" speed="5.56" allow="pedestrian delivery bicycle" oneway="0"/>
    <type id="highway.stairs" priority="1" numLanes="1" speed="1.39" allow="pedestrian" oneway="1" width="2.00"/>
    <type id="highway.step" priority="1" numLanes="1" speed="1.39" allow="pedestrian" oneway="1" width="2.00"/>
    <type id="highway.steps" priority="1" numLanes="1" speed="1.39" allow="pedestrian" oneway="1" width="2.00"/>
    <type id="highway.tertiary" priority="10" numLanes="1" speed="22.22" disallow="tram rail_urban rail rail_electric rail_fast ship" oneway="0"/>
    <type id="highway.tertiary_link" priority="5" numLanes="1" speed="22.22" disallow="tram rail_urban rail rail_electric rail_fast ship" oneway="0"/>
    <type id="highway.track" priority="1" numLanes="1" speed="5.56" allow="pedestrian motorcycle moped bicycle" oneway="0"/>
    <type id="highway.trunk" priority="13" numLanes="2" speed="27.78" disallow="pedestrian bicycle tram rail_urban rail rail_electric rail_fast ship" oneway="0"/>
    <type id="highway.trunk_link" priority="8" numLanes="1" speed="22.22" disallow="pedestrian bicycle tram rail_urban rail rail_electric rail_fast ship" oneway="0"/>
    <type id="highway.unclassified" priority="4" numLanes="1" speed="13.89" disallow="tram rail_urban rail rail_electric rail_fast ship" oneway="0"/>
    <type id="highway.unsurfaced" priority="1" numLanes="1" speed="8.33" disallow="tram rail_urban rail rail_electric rail_fast ship" oneway="0"/>
    <type id="railway.highspeed" priority="21" numLanes="1" speed="69.44" allow="rail_fast" oneway="1"/>
    <type id="railway.light_rail" priority="19" numLanes="1" speed="27.78" allow="rail_urban" oneway="1"/>
    <type id="railway.preserved" priority="16" numLanes="1" speed="27.78" allow="rail" oneway="1"/>
    <type id="railway.rail" priority="20" numLanes="1" speed="44.44" allow="rail" oneway="1"/>
    <type id="railway.subway" priority="18" numLanes="1" speed="27.78" allow="rail_urban" oneway="1"/>
    <type id="railway.tram" priority="17" numLanes="1" speed="13.89" allow="tram" oneway="1"/>

    <edge id="-107215068" from="1232684937" to="1232685143" priority="1" type="highway.service" shape="3567.12,1342.14 3575.83,1343.84 3598.34,1324.71">
        <lane id="-107215068_0" index="0" allow="pedestrian delivery bicycle" speed="8.33" length="38.41" shape="3575.13,1342.08 3575.38,1342.12 3597.30,1323.49"/>
    </edge>
    <edge id="-1073882764#2" from="25272903" to="25273118" priority="3" type="highway.residential" shape="3234.16,739.15 3228.67,731.06 3187.44,670.29 3182.88,663.57">
        <lane id="-1073882764#2_0" index="0" disallow="tram rail_urban rail rail_electric rail_fast ship" speed="8.33" length="91.33" shape="3229.46,735.08 3227.34,731.96 3186.11,671.19 3184.94,669.45"/>
    </edge>
    <edge id="-1080115061#1" from="1232685288" to="9900516179" priority="1" type="highway.service" shape="3403.49,1576.52 3402.68,1579.83 3400.92,1586.97">
        <lane id="-1080115061#1_0" index="0" allow="pedestrian delivery bicycle" speed="5.56" length="10.76" shape="3405.05,1576.91 3404.23,1580.22 3403.38,1583.66"/>
    </edge>
    <edge id="-108246465" from="1242286075" to="256618376" priority="2" type="highway.living_street" shape="4664.35,1643.05 4644.07,1645.81 4628.02,1647.98 4624.07,1648.52">
        <lane id="-108246465_0" index="0" disallow="tram rail_urban rail rail_electric rail_fast ship" speed="5.56" length="40.65" shape="4664.56,1644.63 4644.29,1647.40 4631.45,1649.13"/>
    </edge>
    <edge id="-108265832" from="273732715" to="1242530123" priority="1" type="highway.service" shape="4423.01,1310.07 4426.46,1308.01 4431.52,1307.15">
        <lane id="-108265832_0" index="0" allow="pedestrian delivery bicycle" speed="5.56" length="9.15" shape="4424.01,1307.61 4425.90,1306.49 4431.10,1305.59"/>
    </edge>
    <edge id="-108265834#1" from="1242530091" to="1242529881" priority="1" type="highway.service" shape="4361.50,1523.73 4358.00,1497.17 4357.78,1495.55 4356.94,1489.15">
        <lane id="-108265834#1_0" index="0" allow="pedestrian delivery bicycle" speed="5.56" length="34.88" shape="4359.91,1523.94 4356.41,1497.38 4356.26,1496.24"/>
    </edge>
    <edge id="-108265835" from="1242530123" to="1242530797" priority="1" type="highway.service">
        <lane id="-108265835_0" index="0" allow="delivery bicycle" speed="5.56" length="8.90" shape="4431.39,1305.54 4439.87,1304.09"/>
    </edge>
    <edge id="-1087259055#1" from="25273883" to="9961898494" priority="3" type="highway.residential" shape="3939.89,909.69 3944.95,908.00 3948.26,906.85 3980.79,895.57">
        <lane id="-1087259055#1_0" index="0" disallow="tram rail_urban rail rail_electric rail_fast ship" speed="13.89" length="43.27" shape="3943.86,906.68 3944.44,906.49 3947.73,905.34 3980.27,894.06"/>
    </edge>
    <edge id="-112885547#1" from="250217117" to="329118671" priority="3" type="highway.residential" shape="4117.54,1086.40 4126.53,1083.64 4135.20,1081.13">
        <lane id="-112885547#1_0" index="0" disallow="tram rail_urban rail rail_electric rail_fast ship" speed="8.33" length="18.43" shape="4122.55,1083.19 4126.07,1082.11 4130.12,1080.93"/>
    </edge>
    <edge id="-1196823179" from="11104989688" to="11104989689" priority="1" type="highway.service" shape="3347.16,666.27 3342.57,659.46 3340.62,656.58">
        <lane id="-1196823179_0" index="0" allow="pedestrian delivery bicycle" speed="5.56" length="11.69" shape="3345.83,667.16 3341.24,660.36 3341.13,660.19"/>
    </edge>
    <edge id="-1196823184#2" from="683283106" to="11105022007" priority="1" type="highway.service" shape="3335.58,778.32 3330.84,781.64 3325.28,785.59 3322.06,787.89">
        <lane id="-1196823184#2_0" index="0" allow="pedestrian delivery bicycle" speed="5.56" length="16.56" shape="3336.49,779.63 3331.76,782.95 3326.21,786.89 3325.58,787.34"/>
    </edge>
    <edge id="-1225832293" from="11367918451" to="11367918452" priority="1" type="highway.service">
        <lane id="-1225832293_0" index="0" allow="pedestrian delivery bicycle" speed="5.56" length="21.06" shape="3301.10,851.52 3312.36,843.92"/>
    </edge>
    <edge id="-1225832294" from="11367918453" to="11367918454" priority="1" type="highway.service">
        <lane id="-1225832294_0" index="0" allow="pedestrian delivery bicycle" speed="5.56" length="20.84" shape="3280.51,820.75 3291.53,813.26"/>
    </edge>
    <edge id="-123487808#3" from="8255942949" to="cluster_2200326840_25207339_25273063_280462687_6244897491" priority="11" type="highway.secondary" shape="3634.13,734.82 3630.60,748.81 3628.34,757.02 3623.48,774.54 3618.57,792.51 3614.71,806.63">
        <lane id="-123487808#3_0" index="0" disallow="tram rail_urban rail rail_electric rail_fast ship" speed="8.33" length="86.77" shape="3637.41,741.43 3635.24,750.04 3632.97,758.29 3628.11,775.82 3623.20,793.77 3619.34,807.89"/>
        <lane id="-123487808#3_1" index="1" disallow="tram rail_urban rail rail_electric rail_fast ship" speed="8.33" length="86.77" shape="3634.31,740.65 3632.15,749.22 3629.88,757.44 3625.03,774.97 3620.12,792.93 3616.26,807.05"/>
    </edge>
    <edge id="-123487808#4" from="4695326496" to="8255942949" priority="11" type="highway.secondary">
        <lane id="-123487808#4_0" index="0" disallow="tram rail_urban rail rail_electric rail_fast ship" speed="8.33" length="10.50" shape="3640.15,730.60 3640.09,730.82"/>
        <lane id="-123487808#4_1" index="1" disallow="tram rail_urban rail rail_electric rail_fast ship" speed="8.33" length="10.50" shape="3637.04,729.82 3636.99,730.04"/>
    </edge>
    <edge id="-123487808#5" from="cluster_6227111305_682294054" to="4695326496" priority="11" type="highway.secondary" shape="3640.44,710.80 3636.70,724.64">
        <lane id="-123487808#5_0" index="0" disallow="tram rail_urban rail rail_electric rail_fast ship" speed="8.33" length="19.14" shape="3644.04,715.89 3642.94,719.96"/>
        <lane id="-123487808#5_1" index="1" disallow="tram rail_urban rail rail_electric rail_fast ship" speed="8.33" length="19.14" shape="3640.95,715.05 3639.85,719.12"/>
    </edge>
    <edge id="-1235489484" from="11468980917" to="11468980914" priority="1" type="highway.service" shape="4097.84,862.39 4125.07,853.56 4127.84,852.54 4132.40,850.49">
        <lane id="-1235489484_0" index="0" allow="pedestrian delivery bicycle" speed="5.56" length="36.58" shape="4097.34,860.87 4124.55,852.05 4127.23,851.06 4128.74,850.38"/>
    </edge>
    <edge id="-1247185190" from="2271679230" to="2271679231" priority="1" type="highway.service" shape="4172.52,1380.33 4117.61,1394.77 4110.49,1396.64 4107.30,1397.48 4102.96,1398.62">
        <lane id="-1247185190_0" index="0" allow="pedestrian delivery bicycle" speed="5.56" length="71.92" shape="4172.92,1381.88 4118.02,1396.32 4110.89,1398.19 4107.70,1399.03 4106.52,1399.34"/>
    </edge>
    <edge id="-1274939131#3" from="9074748722" to="25581186" priority="4" type="highway.unclassified" shape="4051.46,390.22 4055.23,400.60 4056.12,403.03 4088.51,492.49 4102.08,523.43 4104.53,528.47 4117.12,555.41">
        <lane id="-1274939131#3_0" index="0" disallow="tram rail_urban rail rail_electric rail_fast ship" speed="8.33" length="177.90" shape="4052.96,389.68 4056.73,400.05 4057.62,402.49 4090.00,491.89 4103.53,522.76 4105.97,527.78 4117.88,553.27"/>
    </edge>
    <edge id="-135103733#1" from="1484055006" to="1484055008" priority="1" type="highway.service" shape="3784.90,1337.07 3793.11,1342.36 3798.05,1345.55">
        <lane id="-135103733#1_0" index="0" allow="pedestrian delivery bicycle" speed="8.33" length="15.65" shape="3786.10,1335.94 3793.98,1341.02 3796.32,1342.53"/>
    </edge>
    <edge id="-135103734" from="1484054992" to="1484055006" priority="1" type="highway.service" shape="3782.61,1333.25 3783.10,1335.13 3784.90,1337.07">
        <lane id="-135103734_0" index="0" allow="pedestrian delivery bicycle" speed="5.56" length="4.58" shape="3784.15,1332.84 3784.55,1334.33 3785.80,1335.68"/>
    </edge>
    <edge id="-16405437#1" from="5229425526" to="169319602" priority="4" type="highway.unclassified" shape="3587.72,1324.12 3614.77,1302.25 3628.53,1287.01">
        <lane id="-16405437#1_0" index="0" disallow="tram rail_urban rail rail_electric rail_fast ship" speed="8.33" length="55.32" shape="3586.80,1322.80 3613.67,1301.08 3618.34,1295.91"/>
    </edge>
    <edge id="-16405595#1" from="280075369" to="169322949" priority="2" type="highway.living_street" shape="3247.49,1637.49 3352.87,1632.48 3370.58,1634.20">
        <lane id="-16405595#1_0" index="0" disallow="tram rail_urban rail rail_electric rail_fast ship" speed="5.56" length="127.35" shape="3247.42,1635.89 3352.91,1630.87 3372.02,1632.73"/>
    </edge>
    <edge id="-18229335#2" from="25581143" to="25581148" priority="3" type="highway.residential" shape="4060.84,669.88 4070.80,666.23 4121.82,647.24 4123.22,646.79 4134.24,643.21">
        <lane id="-18229335#2_0" index="0" disallow="tram rail_urban rail rail_electric rail_fast ship" speed="8.33" length="78.11" shape="4065.54,666.45 4070.25,664.73 4121.27,645.74 4122.73,645.27 4128.54,643.38"/>
    </edge>
    <edge id="-18229612#3" from="11563663280" to="25207313" priority="12" type="highway.primary" shape="4193.91,1297.63 4213.16,1293.07 4220.45,1291.24 4287.38,1273.87 4301.13,1270.83">
        <lane id="-18229612#3_0" index="0" disallow="tram rail_urban rail rail_electric rail_fast ship" speed="8.33" length="110.53" shape="4198.33,1294.93 4212.78,1291.51 4220.06,1289.69 4287.01,1272.32 4293.25,1270.94"/>
    </edge>
    <edge id="-18229612#4" from="8107850868" to="11563663280" priority="12" type="highway.primary">
        <lane id="-18229612#4_0" index="0" disallow="tram rail_urban rail rail_electric rail_fast ship" speed="8.33" length="102.16" shape="4101.58,1319.38 4188.19,1297.42"/>
    </edge>
    <edge id="-187019914#1" from="10229689292" to="25273209" priority="11" type="highway.secondary" shape="3699.61,497.50 3691.99,525.42 3690.92,529.70 3684.43,549.86">
        <lane id="-187019914#1_0" index="0" disallow="tram rail_urban rail rail_electric rail_fast ship" speed="8.33" length="54.53" shape="3703.38,501.92 3696.62,526.68 3695.53,531.02 3690.91,545.40"/>
        <lane id="-187019914#1_1" index="1" disallow="tram rail_urban rail rail_electric rail_fast ship" speed="8.33" length="54.53" shape="3700.29,501.08 3693.53,525.84 3692.45,530.14 3687.86,544.42"/>
    </edge>
    <edge id="-190590916#3" from="8580043702" to="8547341737" priority="11" type="highway.secondary" shape="4241.75,428.05 4245.70,439.51 4246.58,441.98 4247.73,445.21 4256.86,471.05 4264.57,493.74 4267.89,502.99 4273.19,517.78 4292.27,570.89 4293.28,573.71 4296.52,582.83">
        <lane id="-190590916#3_0" index="0" allow="bus bicycle" speed="8.33" length="164.18" shape="4243.26,427.53 4247.21,438.99 4248.09,441.45 4249.23,444.68 4258.37,470.53 4266.09,493.22 4269.39,502.45 4274.70,517.24 4293.77,570.35 4294.55,572.53"/>
    </edge>
    <edge id="-192903838#2" from="25273209" to="cluster_6227111305_682294054" priority="11" type="highway.secondary" shape="3684.43,549.86 3680.32,564.18 3651.83,670.21 3646.79,688.53 3643.05,701.55">
        <lane id="-192903838#2_0" index="0" disallow="tram rail_urban rail rail_electric rail_fast ship" speed="8.33" length="162.04" shape="3686.93,558.57 3684.95,565.46 3656.47,671.47 3651.42,689.83 3649.92,695.02"/>
        <lane id="-192903838#2_1" index="1" disallow="tram rail_urban rail rail_electric rail_fast ship" speed="8.33" length="162.04" shape="3683.85,557.69 3681.87,564.61 3653.38,670.63 3648.33,688.96 3646.85,694.14"/>
    </edge>
    <edge id="-192903841#3" from="398787" to="cluster_1232624493_29604212_8873639228" priority="10" type="highway.tertiary" shape="3478.16,1232.61 3464.65,1244.39 3455.29,1252.24 3439.93,1265.43 3402.94,1297.17 3396.11,1303.04">
        <lane id="-192903841#3_0" index="0" allow="bus bicycle" speed="8.33" length="116.01" shape="3477.13,1235.63 3465.69,1245.60 3456.33,1253.46 3440.98,1266.64 3403.99,1298.38 3401.27,1300.71"/>
    </edge>
    <edge id="-194586818#2" from="25207313" to="cluster_25207311_26039984" priority="12" type="highway.primary" shape="4301.13,1270.83 4312.16,1267.73 4344.32,1260.25 4486.36,1222.72 4494.93,1220.49">
        <lane id="-194586818#2_0" index="0" disallow="tram rail_urban rail rail_electric rail_fast ship" speed="8.33" length="210.21" shape="4306.82,1267.57 4311.76,1266.18 4343.94,1258.70 4485.95,1221.17 4489.03,1220.37"/>
    </edge>
    <edge id="-217588511" from="689178470" to="250218824" priority="3" type="highway.residential" shape="4414.12,969.44 4360.27,990.17 4315.99,1007.29 4306.96,1010.81">
        <lane id="-217588511_0" index="0" disallow="tram rail_urban rail rail_electric rail_fast ship" speed="8.33" length="114.87" shape="4413.30,971.47 4360.85,991.66 4317.52,1008.42"/>
    </edge>
    <edge id="-23699723#2" from="256618376" to="256618356" priority="2" type="highway.living_street" shape="4624.07,1648.52 4623.26,1642.03 4612.67,1557.18 4611.87,1551.22">
        <lane id="-23699723#2_0" index="0" disallow="tram rail_urban rail rail_electric rail_fast ship" speed="5.56" length="98.06" shape="4621.58,1641.51 4611.08,1557.38 4610.74,1554.87"/>
    </edge>
    <edge id="-24659034#2" from="169320949" to="cluster_169320939_661211" priority="4" type="highway.unclassified" shape="3120.00,1581.39 3111.20,1581.12 3049.93,1579.88 3037.15,1580.00">
        <lane id="-24659034#2_0" index="0" disallow="tram rail_urban rail rail_electric rail_fast ship" speed="8.33" length="92.09" shape="3112.31,1582.75 3111.16,1582.71 3049.92,1581.48 3042.32,1581.55"/>
    </edge>
    <edge id="-25325260#2" from="25272923" to="25272915" priority="10" type="highway.tertiary" shape="3452.32,1065.91 3447.50,1058.77 3366.22,938.09 3359.61,927.19">
        <lane id="-25325260#2_0" index="0" disallow="tram rail_urban rail rail_electric rail_fast ship" speed="8.33" length="166.87" shape="3445.18,1063.92 3443.52,1061.45 3362.17,940.68 3359.26,935.88"/>
        <lane id="-25325260#2_1" index="1" disallow="tram rail_urban rail rail_electric rail_fast ship" speed="8.33" length="166.87" shape="3447.84,1062.13 3446.18,1059.67 3364.87,938.95 3362.00,934.22"/>
    </edge>
    <edge id="-25325260#5" from="cluster_398774_398775" to="25272923" priority="10" type="highway.tertiary" shape="3505.02,1136.48 3498.20,1130.72 3456.77,1072.15 3452.32,1065.91">
        <lane id="-25325260#5_0" index="0" disallow="tram rail_urban rail rail_electric rail_fast ship" speed="8.33" length="97.35" shape="3499.99,1138.51 3494.64,1133.99 3452.86,1074.93 3451.74,1073.36"/>
        <lane id="-25325260#5_1" index="1" disallow="tram rail_urban rail rail_electric rail_fast ship" speed="8.33" length="97.35" shape="3502.05,1136.06 3497.02,1131.81 3455.47,1073.08 3454.34,1071.50"/>
    </edge>
    <edge id="-25325262#2" from="cluster_11367918458_25273088" to="25272903" priority="10" type="highway.tertiary" shape="3267.61,790.41 3259.67,778.11 3239.16,746.81 3234.16,739.15">
        <lane id="-25325262#2_0" index="0" disallow="tram rail_urban rail rail_electric rail_fast ship" speed="8.33" length="66.08" shape="3264.30,788.23 3258.33,778.98 3237.82,747.68 3235.79,744.57"/>
    </edge>
    <edge id="-260721324#2" from="2662859355" to="2662859352" priority="1" type="highway.service" shape="3283.21,1493.57 3282.57,1490.53 3278.25,1470.10 3273.47,1450.70 3273.35,1450.17 3272.92,1446.32">
        <lane id="-260721324#2_0" index="0" allow="pedestrian delivery bicycle" speed="5.56" length="48.39" shape="3281.01,1490.92 3276.69,1470.46 3271.92,1451.08 3271.77,1450.45 3271.67,1449.56"/>
    </edge>
    <edge id="-283654868#1" from="27415756" to="260565718" priority="11" type="highway.secondary" shape="3097.12,1736.15 3083.58,1734.41 3078.40,1733.78 3072.51,1732.99">
        <lane id="-283654868#1_0" index="0" disallow="tram rail_urban rail rail_electric rail_fast ship" speed="8.33" length="24.81" shape="3089.74,1736.81 3083.37,1736.00 3078.20,1735.36 3077.28,1735.24"/>
    </edge>
    <edge id="-28604610#2" from="21292435" to="314312890" priority="4" type="highway.unclassified" shape="2919.36,1210.61 2911.32,1212.99 2858.83,1228.43 2854.79,1229.61">
        <lane id="-28604610#2_0" index="0" disallow="tram rail_urban rail rail_electric rail_fast ship" speed="13.89" length="67.30" shape="2912.32,1214.36 2911.77,1214.52 2860.50,1229.61"/>
    </edge>
    <edge id="-28604678#1" from="314317320" to="cluster_21292434_314317149" priority="1" type="highway.service" shape="2920.28,1187.59 2932.68,1211.82 2939.67,1226.38">
        <lane id="-28604678#1_0" index="0" allow="pedestrian delivery bicycle" speed="5.56" length="45.97" shape="2921.71,1186.86 2934.11,1211.11 2938.74,1220.75"/>
    </edge>
    <edge id="-29873696#1" from="329128276" to="329118671" priority="1" type="highway.service" shape="4123.97,1047.12 4133.20,1075.09 4135.20,1081.13">
        <lane id="-29873696#1_0" index="0" allow="pedestrian delivery bicycle" speed="5.56" length="35.82" shape="4125.49,1046.62 4134.72,1074.59 4135.21,1076.05"/>
    </edge>
    <edge id="-300545521#0" from="256618376" to="256619150" priority="2" type="highway.living_street" shape="4624.07,1648.52 4619.99,1648.95 4609.46,1650.37">
        <lane id="-300545521#0_0" index="0" disallow="tram rail_urban rail rail_electric rail_fast ship" speed="5.56" length="14.72" shape="4617.03,1650.96 4609.67,1651.95"/>
    </edge>
    <edge id="-30620957" from="25272891" to="338647421" priority="1" type="highway.service">
        <lane id="-30620957_0" index="0" allow="pedestrian delivery bicycle" speed="8.33" length="34.00" shape="3459.04,846.47 3431.65,856.25"/>
    </edge>
    <edge id="-31956711#3" from="398768" to="25273786" priority="12" type="highway.primary" shape="3528.93,1190.01 3542.96,1191.83 3546.48,1192.76 3546.70,1192.82 3573.97,1200.18 3635.50,1216.39 3647.69,1219.55">
        <lane id="-31956711#3_0" index="0" disallow="tram rail_urban rail rail_electric rail_fast ship" speed="8.33" length="122.49" shape="3535.08,1189.19 3543.27,1190.25 3546.89,1191.22 3547.09,1191.27 3574.38,1198.64 3635.91,1214.84 3641.08,1216.18"/>
    </edge>
    <edge id="-330420107#2" from="1084405386" to="1989439078" priority="11" type="highway.secondary" shape="3324.32,1773.65 3316.17,1772.05 3287.56,1766.78 3271.29,1764.05 3238.31,1758.30 3228.95,1756.80 3191.07,1751.00 3185.03,1750.06 3157.18,1745.37 3139.76,1741.70 3123.11,1738.62">
        <lane id="-330420107#2_0" index="0" allow="bus bicycle" speed="8.33" length="204.26" shape="3316.89,1773.82 3315.87,1773.62 3287.29,1768.36 3271.02,1765.63 3238.05,1759.88 3228.70,1758.38 3190.83,1752.58 3184.77,1751.64 3156.88,1746.95 3139.45,1743.27 3126.56,1740.88"/>
    </edge>
    <edge id="-330420107#3" from="3681124523" to="1084405386" priority="11" type="highway.secondary" shape="3390.86,1787.19 3361.39,1780.27 3324.32,1773.65">
        <lane id="-330420107#3_0" index="0" allow="bus bicycle" speed="8.33" length="67.93" shape="3390.49,1788.75 3361.07,1781.84 3331.23,1776.51"/>
    </edge>
    <edge id="-34681800#1" from="25581699" to="9153302262" priority="11" type="highway.secondary" shape="4348.69,859.35 4355.42,833.98 4360.07,816.46 4362.19,808.49">
        <lane id="-34681800#1_0" index="0" allow="bus bicycle" speed="8.33" length="52.62" shape="4348.43,854.09 4353.87,833.57 4358.09,817.70"/>
    </edge>
    <edge id="-34681800#4" from="9150711680" to="25581699" priority="11" type="highway.secondary" shape="4337.30,902.23 4340.96,888.63 4341.82,885.65 4342.55,882.87 4348.69,859.35">
        <lane id="-34681800#4_0" index="0" allow="bus bicycle" speed="8.33" length="44.37" shape="4339.36,888.42 4339.42,888.21 4340.28,885.23 4341.00,882.46 4345.57,864.97"/>
    </edge>
    <edge id="-34682000#1" from="1989439078" to="27415756" priority="11" type="highway.secondary" shape="3123.11,1738.62 3107.50,1737.12 3097.12,1736.15">
        <lane id="-34682000#1_0" index="0" allow="bus bicycle" speed="8.33" length="26.11" shape="3119.30,1739.86 3110.26,1738.99"/>
    </edge>
    <edge id="-34684074#2" from="398795" to="25273482" priority="12" type="highway.primary" shape="2892.96,1035.74 2887.79,1025.03 2877.93,1004.68 2852.86,952.87 2846.17,939.05">
        <lane id="-34684074#2_0" index="0" disallow="tram rail_urban rail rail_electric rail_fast ship" speed="13.89" length="107.42" shape="2885.92,1032.21 2883.46,1027.12 2873.61,1006.77 2848.54,954.96 2844.28,946.16"/>
        <lane id="-34684074#2_1" index="1" disallow="tram rail_urban rail rail_electric rail_fast ship" speed="13.89" length="107.42" shape="2888.81,1030.82 2886.34,1025.73 2876.49,1005.37 2851.42,953.57 2847.16,944.76"/>
    </edge>
    <edge id="-362310465#1" from="25273482" to="1212027401" priority="12" type="highway.primary" shape="2846.17,939.05 2840.25,927.50 2788.05,822.91 2777.33,801.48 2764.80,776.16 2763.04,772.60 2758.11,762.63">
        <lane id="-362310465#1_0" index="0" disallow="tram rail_urban rail rail_electric rail_fast ship" speed="13.89" length="197.17" shape="2839.27,936.10 2835.97,929.67 2783.75,825.06 2773.03,803.62 2760.50,778.29 2758.74,774.72 2753.81,764.76"/>
        <lane id="-362310465#1_1" index="1" disallow="tram rail_urban rail rail_electric rail_fast ship" speed="13.89" length="197.17" shape="2842.11,934.64 2838.82,928.23 2786.62,823.63 2775.89,802.20 2763.37,776.87 2761.60,773.31 2756.67,763.34"/>
    </edge>
    <edge id="-362489571#1" from="29604227" to="817304272" priority="10" type="highway.tertiary" shape="3219.99,1452.66 3205.51,1466.06 3192.81,1478.11 3180.25,1489.87 3175.75,1494.08">
        <lane id="-362489571#1_0" index="0" allow="bus bicycle" speed="8.33" length="60.61" shape="3207.00,1466.87 3206.61,1467.23 3193.91,1479.27 3181.34,1491.04 3176.83,1495.25"/>
    </edge>
    <edge id="-37064088#1" from="cluster_260565692_5218890355_6352986012" to="661213" priority="11" type="highway.secondary" shape="2963.18,1709.98 2949.17,1707.00 2934.24,1703.52 2927.00,1701.80">
        <lane id="-37064088#1_0" index="0" disallow="tram rail_urban rail rail_electric rail_fast ship" speed="8.33" length="41.97" shape="2956.54,1710.20 2948.82,1708.56 2940.77,1706.68"/>
    </edge>
    <edge id="-379447184" from="cluster_10770535269_2200327356_264494546" to="25273216" priority="12" type="highway.primary" shape="3193.96,1107.54 3181.58,1104.65 3169.54,1101.99 3095.24,1083.65 3079.91,1079.99">
        <lane id="-379447184_0" index="0" disallow="tram rail_urban rail rail_electric rail_fast ship" speed="8.33" length="125.37" shape="3179.37,1109.08 3168.45,1106.66 3094.11,1088.31 3086.36,1086.46"/>
        <lane id="-379447184_1" index="1" disallow="tram rail_urban rail rail_electric rail_fast ship" speed="8.33" length="125.37" shape="3180.10,1105.96 3169.18,1103.55 3094.86,1085.20 3087.10,1083.35"/>
    </edge>
    <edge id="-379447185" from="cluster_10770535269_2200327356_264494546" to="25273865" priority="12" type="highway.primary" shape="3193.96,1107.54 3200.83,1109.15 3211.74,1111.07 3270.13,1125.32 3271.86,1125.73">
        <lane id="-379447185_0" index="0" disallow="tram rail_urban rail rail_electric rail_fast ship" speed="8.33" length="80.09" shape="3206.59,1102.04 3213.38,1103.23 3269.81,1117.01"/>
        <lane id="-379447185_1" index="1" disallow="tram rail_urban rail rail_electric rail_fast ship" speed="8.33" length="80.09" shape="3205.86,1105.16 3212.72,1106.36 3269.08,1120.13"/>
        <lane id="-379447185_2" index="2" disallow="tram rail_urban rail rail_electric rail_fast ship" speed="8.33" length="80.09" shape="3205.13,1108.28 3212.06,1109.50 3268.34,1123.24"/>
    </edge>
    <edge id="-4018042#1" from="cluster_2200327079_25272928_689143329" to="cluster_25273208_6958029660" priority="11" type="highway.secondary" shape="3562.47,998.72 3554.43,1027.43 3553.58,1030.46">
        <lane id="-4018042#1_0" index="0" disallow="tram rail_urban rail rail_electric rail_fast ship" speed="8.33" length="50.85" shape="3566.03,1003.82 3561.96,1018.34"/>