<?xml version="1.0" encoding="UTF-8"?>

<!-- generated on 2024-05-09 15:12:49 by Eclipse SUMO polyconvert Version 1.11.0
<configuration xmlns:xsi="http://www.w3.org/2001/XMLSchema-instance" xsi:noNamespaceSchemaLocation="http://sumo.dlr.de/xsd/polyconvertConfiguration.xsd">

    <input>
        <net-file value="paris.net.xml"/>
        <osm-files value="paris.osm.xml"/>
    </input>

    <output>
        <output-file value="paris.poly.xml"/>
    </output>

    <processing>
        <poi-layer-offset value="5"/>
    </processing>

</configuration>
-->

<additional xmlns:xsi="http://www.w3.org/2001/XMLSchema-instance" xsi:noNamespaceSchemaLocation="http://sumo.dlr.de/xsd/additional_file.xsd">
    <location netOffset="-447525.83,-5412106.35" convBoundary="-3316.26,-2990.42,6169.84,3465.49" origBoundary="2.239780,48.832513,2.368773,48.891169" projParameter="+proj=utm +zone=31 +ellps=WGS84 +datum=WGS84 +units=m +no_defs"/>

    <poly id="1004744975" type="shop" color="237,199,255" fill="1" layer="-1.00" shape="3184.622020,1738.777659 3189.560794,1703.515197 3230.069659,1701.178524 3228.122992,1669.234200 3191.628750,1671.157425 3192.079696,1684.015866 3164.170841,1680.771804 3131.705552,1683.037782 3127.762122,1682.405650 3129.303212,1675.076994 3116.421943,1673.745765 3111.600932,1704.037932 3128.551398,1728.512196 3184.622020,1738.777659"/>
    <poly id="1004744976" type="amenity" color="237,199,199" fill="1" layer="-1.00" shape="3132.021144,1690.527882 3131.952158,1689.361202 3131.668300,1682.971409 3144.885826,1681.698309 3145.223818,1691.722899 3145.007342,1691.291249 3144.066584,1690.221216 3143.674720,1689.857820 3142.989459,1689.485902 3141.657861,1688.997413 3140.380737,1688.864189 3140.050875,1688.878224 3138.828322,1689.111380 3138.112201,1689.395641 3137.076599,1690.038474 3136.800129,1690.285495 3132.021144,1690.527882"/>
    <poly id="1004744977" type="shop" color="237,199,255" fill="1" layer="-1.00" shape="3157.116044,1733.795815 3159.115360,1721.894008 3164.364674,1721.769773 3163.783490,1709.946369 3166.033757,1709.837537 3165.309408,1695.091615 3171.731250,1694.879202 3173.304857,1724.403293 3170.719528,1723.936998 3167.934738,1735.745692 3157.116044,1733.795815"/>
    <poly id="1029915907" type="natural" color="140,196,107" fill="1" layer="-4.00" shape="4603.111957,786.045400 4604.416292,785.911921 4604.078805,782.479667 4602.774373,782.602030 4603.111957,786.045400"/>
    <poly id="1029915908" type="natural" color="140,196,107" fill="1" layer="-4.00" shape="4609.289623,785.458776 4610.594054,785.336414 4610.256475,781.893044 4608.959472,782.026459 4609.289623,785.458776"/>
    <poly id="103839777" type="building" color="255,230,230" fill="1" layer="-1.00" shape="3192.607004,1607.592615 3192.732949,1615.206680 3184.317054,1615.492276 3179.434660,1615.657716 3179.493528,1618.169648 3179.550234,1620.437025 3139.242273,1622.338713 3139.379048,1620.392019 3140.230941,1609.756584 3140.362449,1608.043395 3140.493957,1606.330206 3142.519218,1606.479047 3192.607004,1607.592615"/>
    <poly id="1044051883" type="leisure" color="207,245,201" fill="1" layer="-2.00" shape="3935.940403,1051.114793 3977.201014,1051.167243 3977.210427,1048.032163 3935.949792,1047.979713 3935.940403,1051.114793"/>
    <poly id="1044052502" type="landuse" color="194,194,130" fill="1" layer="-3.00" shape="4207.882409,904.889929 4204.338588,905.565379 4209.935255,926.850486 4213.756291,926.005885 4207.882409,904.889929"/>
    <poly id="1050626961" type="building" color="255,230,230" fill="1" layer="-1.00" shape="4385.647038,524.031658 4387.137158,527.576252 4389.518833,526.488493 4392.910662,536.231097 4381.344570,540.533011 4376.026489,527.705380 4385.647038,524.031658"/>
    <poly id="1050626961#1" type="shop" color="237,199,255" fill="1" layer="-1.00" shape="4385.647038,524.031658 4387.137158,527.576252 4389.518833,526.488493 4392.910662,536.231097 4381.344570,540.533011 4376.026489,527.705380 4385.647038,524.031658"/>
    <poly id="1054401417" type="amenity" color="237,199,199" fill="1" layer="-1.00" shape="4467.084549,527.721512 4486.074256,526.946705 4487.598039,525.032593 4465.930566,525.730384 4467.084549,527.721512"/>
    <poly id="1061630685" type="amenity" color="237,199,199" fill="1" layer="-1.00" shape="4324.323190,535.933263 4298.403457,544.472536 4290.880230,521.769900 4316.792629,513.219539 4324.323190,535.933263"/>
    <poly id="1066482381" type="building" color="255,230,230" fill="1" layer="-1.00" shape="3156.384454,1519.209880 3155.905904,1519.825550 3155.720661,1520.438625 3156.105990,1520.891017 3156.723900,1521.107894 3162.374499,1519.901758 3162.613430,1519.555017 3162.867125,1519.219263 3161.847178,1516.660243 3161.214700,1516.454611 3156.384454,1519.209880"/>
    <poly id="1069658043" type="shop" color="237,199,255" fill="1" layer="-1.00" shape="3093.903928,1553.024935 3093.459050,1550.816581 3096.650664,1550.176886 3097.095541,1552.385240 3093.903928,1553.024935"/>
    <poly id="1070716156" type="building" color="255,230,230" fill="1" layer="-1.00" shape="3065.177286,1498.939210 3065.353082,1500.571859 3062.231618,1500.855205 3061.485367,1493.602383 3063.141672,1493.487655 3063.757468,1492.637304 3063.324034,1489.239327 3073.872505,1487.945244 3075.160630,1497.594551 3065.177286,1498.939210"/>
    <poly id="107215060" type="building" color="255,230,230" fill="1" layer="-1.00" shape="3740.914297,1261.270536 3753.644096,1264.483320 3764.999502,1267.352389 3767.284319,1271.178927 3766.950929,1272.471413 3763.385337,1286.576704 3756.912870,1312.113454 3754.616132,1321.193891 3754.851174,1321.236306 3753.497193,1326.584305 3753.283859,1326.508350 3752.915073,1327.945667 3741.871261,1332.188798 3741.492232,1329.935354 3737.581312,1330.525377 3735.254622,1311.835753 3736.998113,1311.620411 3734.908257,1295.696858 3734.461625,1294.099909 3732.043543,1293.487369 3733.539800,1287.637855 3745.570678,1290.601035 3746.321946,1287.615109 3734.341616,1284.562550 3740.914297,1261.270536"/>
    <poly id="107220583" type="building" color="255,230,230" fill="1" layer="-1.00" shape="3991.080824,1509.768086 3988.534818,1501.174527 3983.805192,1485.184900 3981.803164,1478.432041 3976.448016,1475.688231 3973.354685,1476.682311 3950.348616,1484.086251 3931.445126,1490.176120 3924.329759,1492.461458 3923.774817,1493.577991 3925.301426,1499.623480 3927.868603,1509.795445 3930.397753,1519.812103 3931.878900,1525.691234 3952.305546,1520.210666 3972.658808,1514.719695 3980.743142,1512.548280 3991.080824,1509.768086"/>
    <poly id="107368398" type="building" color="255,230,230" fill="0" layer="-1.00" shape="3135.643137,1682.180284 3131.668300,1682.971409"/>
    <poly id="1085645010" type="leisure" color="207,245,201" fill="1" layer="-2.00" shape="2895.302900,571.595189 2896.635742,566.413921 2907.289934,570.221333 2909.993905,569.118957 2918.802239,587.239301 2909.214012,591.960283 2877.651138,587.538280 2879.724521,584.807290 2882.305023,586.318503 2887.392186,578.558059 2888.059846,579.408137 2888.931274,580.078531 2890.094675,580.590692 2891.284843,580.813572 2892.260747,580.860484 2893.102664,580.686246 2894.242309,580.175851 2895.328936,579.476938 2896.178903,578.557787 2896.776850,577.340716 2897.053884,576.326604 2897.087910,575.203481 2896.985259,574.381732 2896.631477,573.362108 2896.058665,572.455601 2895.302900,571.595189"/>
    <poly id="1085645011" type="leisure" color="207,245,201" fill="1" layer="-2.00" shape="2893.636655,563.194398 2894.243838,561.365808 2907.361326,565.873937 2912.093862,563.597367 2924.245121,588.969683 2909.897120,596.200923 2869.618561,590.689115 2869.687057,590.143771 2871.011053,588.920242 2873.549038,586.474162 2876.069392,583.694729 2878.896609,579.956504 2881.080490,581.404539 2886.610206,572.272765 2887.153828,571.545326 2887.685647,571.140386 2888.314487,570.923573 2889.032717,570.861604 2889.913973,570.987176 2891.208399,571.387002 2892.216604,571.767138 2892.886954,572.094692 2893.262762,572.291459 2893.794756,572.731412 2894.373618,573.493344 2894.687965,574.202041 2894.884278,574.833967 2895.007548,575.499894 2894.983645,576.111544 2894.798199,576.702395 2894.444567,577.350326 2893.965469,577.910435 2893.514323,578.314658 2892.974379,578.630734 2892.433251,578.813415 2891.781027,578.874797 2891.032375,578.814749 2890.348246,578.587371 2889.676612,578.115308 2889.261270,577.596498 2889.087255,576.997725 2889.053275,576.475526 2889.165579,575.907559 2889.425648,575.460566 2889.840421,575.090017 2890.279172,574.941596 2890.756370,574.992940 2891.131289,575.089661 2891.404323,575.276225 2891.679136,575.662878 2891.807270,576.050836 2891.862263,576.461678 2891.858189,576.828576 2891.816656,577.106871 2892.167004,576.914768 2892.362253,576.601756 2892.453247,576.111797 2892.374080,575.456596 2892.103933,574.769740 2891.724272,574.139443 2891.169091,573.566291 2890.586353,573.193491 2890.005096,572.987433 2889.447521,572.970155 2888.912935,573.063842 2888.489346,573.267714 2888.126405,573.693387 2881.659606,583.845140 2879.343617,582.387162 2876.849017,585.588812 2875.112818,587.471910 2873.242534,589.122743 2909.579345,594.280498 2921.708607,588.280722 2911.178524,566.240237 2907.394364,567.941412 2895.659907,563.899025 2893.636655,563.194398"/>
    <poly id="1085645012" type="landuse" color="194,194,130" fill="1" layer="-3.00" shape="2895.659907,563.899025 2892.886954,572.094692 2893.262762,572.291459 2893.794756,572.731412 2894.373618,573.493344 2894.687965,574.202041 2894.884278,574.833967 2895.007548,575.499894 2894.983645,576.111544 2894.798199,576.702395 2894.444567,577.350326 2893.965469,577.910435 2893.514323,578.314658 2892.974379,578.630734 2892.433251,578.813415 2891.781027,578.874797 2891.032375,578.814749 2890.348246,578.587371 2889.676612,578.115308 2889.261270,577.596498 2889.087255,576.997725 2889.053275,576.475526 2889.165579,575.907559 2889.425648,575.460566 2889.840421,575.090017 2890.279172,574.941596 2890.756370,574.992940 2891.131289,575.089661 2891.404323,575.276225 2891.679136,575.662878 2891.807270,576.050836 2891.862263,576.461678 2891.858189,576.828576 2891.816656,577.106871 2892.167004,576.914768 2892.362253,576.601756 2892.453247,576.111797 2892.374080,575.456596 2892.103933,574.769740 2891.724272,574.139443 2891.169091,573.566291 2890.586353,573.193491 2890.005096,572.987433 2889.447521,572.970155 2888.912935,573.063842 2888.489346,573.267714 2888.126405,573.693387 2881.659606,583.845140 2879.343617,582.387162 2876.849017,585.588812 2875.112818,587.471910 2873.242534,589.122743 2909.579345,594.280498 2921.708607,588.280722 2911.178524,566.240237 2907.394364,567.941412 2895.659907,563.899025"/>
    <poly id="1085645013" type="landuse" color="194,194,130" fill="1" layer="-3.00" shape="2915.382621,585.390898 2911.914316,578.062229 2910.796474,578.550193 2909.984707,577.990436 2908.799404,577.489582 2907.675933,577.343925 2906.717067,577.563668 2905.796352,577.949828 2905.110619,578.367251 2904.450344,579.173544 2904.083426,579.977231 2903.954354,581.134550 2904.059671,582.256435 2904.347248,583.254414 2904.869708,584.272539 2905.374167,584.090184 2905.642237,584.543601 2906.049158,584.940199 2906.462621,585.247803 2906.977772,585.443332 2907.579942,585.526919 2908.137121,585.499734 2908.810556,585.349230 2910.228095,588.049193 2915.382621,585.390898"/>
    <poly id="1085645014" type="leisure" color="207,245,201" fill="1" layer="-2.00" shape="2909.358182,583.421117 2909.678009,583.095881 2909.924103,582.726832 2910.096463,582.313971 2910.180618,581.879659 2910.183903,581.423831 2910.092045,580.991082 2909.919711,580.581283 2909.674334,580.205484 2909.356112,579.885917 2908.987244,579.644619 2908.574965,579.470409 2908.141375,579.374208 2907.694007,579.378183 2907.254663,579.459905 2906.838112,579.630362 2906.466157,579.867124 2906.138896,580.181309 2905.885567,580.561539 2905.713208,580.974401 2905.621719,581.408779 2905.618336,581.853490 2905.702959,582.297420 2905.868058,582.718400 2906.120769,583.094134 2906.468524,583.435673 2906.815292,583.666050 2907.131934,583.807758 2907.668395,583.925279 2908.130431,583.921174 2908.569774,583.839451 2908.964422,583.680307 2909.358182,583.421117"/>
    <poly id="1094130100" type="shop" color="237,199,255" fill="1" layer="-1.00" shape="2774.554286,1058.862490 2781.920287,1055.884198 2795.294855,1050.673458 2799.570377,1049.012292 2853.389516,1027.933387 2863.469243,1024.141754 2858.084820,1013.272703 2851.333552,999.625438 2841.356936,1004.294421 2825.632144,1011.615970 2827.859825,1016.354240 2821.637549,1019.300055 2800.079238,1029.564040 2799.117089,1029.405852 2788.797889,1033.477661 2775.577384,1038.698161 2768.167759,1041.721318 2771.496345,1050.663118 2774.554286,1058.862490"/>
    <poly id="1094503703" type="natural" color="140,196,107" fill="0" layer="-4.00" shape="3841.696925,472.717043 3843.289337,477.016561 3844.754064,480.972566 3846.474251,485.626716 3848.592438,491.344630 3850.402758,496.242570 3852.242992,501.206951 3853.978125,505.894324 3855.608157,510.304688 3857.426090,515.235915 3859.521769,520.898444 3861.196862,525.430705 3863.164758,530.738605 3864.899873,535.425981 3866.492347,539.736622 3868.392774,544.878357 3870.041837,550.633717 3871.818549,555.887701 3873.788264,561.406812 3875.412384,565.983988 3877.009393,570.817093 3878.909800,575.958831 3880.520890,580.725111 3882.113244,585.024641 3883.577917,588.980656 3885.298040,593.634818 3887.408815,599.352812 3889.219068,604.250764 3891.059234,609.215159 3892.794302,613.902544 3894.424275,618.312920 3896.249473,623.244096 3898.345075,628.906640 3900.020107,633.438913 3901.980595,638.746891 3903.715646,643.434279 3905.315395,647.744868 3907.208418,652.886680"/>
    <poly id="1094503704" type="natural" color="140,196,107" fill="0" layer="-4.00" shape="3902.515021,654.639561 3900.622090,649.508866 3899.022338,645.198279 3897.287284,640.510891 3895.326694,635.191799 3893.651757,630.670644 3891.556151,625.008102 3889.730948,620.076927 3888.100973,615.666553 3886.365901,610.979169 3884.525634,606.003660 3882.715475,601.116825 3880.604695,595.398833 3878.884569,590.744672 3877.412462,586.777606 3875.827439,582.478014 3874.618768,578.441951 3872.725691,573.300151 3871.128679,568.467048 3869.497222,563.889936 3867.527503,558.370827 3865.750788,553.116845 3863.311636,545.912041 3861.411301,540.781425 3859.811392,536.459732 3858.083607,531.772294 3856.115707,526.464395 3854.440707,521.943253 3852.344926,516.269609 3850.527086,511.349500 3848.889716,506.939202 3847.161913,502.251766 3845.321578,497.276270 3843.511254,492.378332 3841.393062,486.660420 3839.672871,482.006271 3838.208140,478.050268 3836.615724,473.750751"/>
    <poly id="1094503705" type="natural" color="140,196,107" fill="0" layer="-4.00" shape="3854.281098,467.437954 3855.873502,471.737476 3857.338319,475.704600 3859.058496,480.358754 3861.169339,486.076737 3862.979552,490.963564 3864.819873,495.939066 3866.554997,500.626442 3868.185021,505.036810 3870.010278,509.967977 3872.105946,515.630511 3873.780934,520.151659 3875.741581,525.470743 3877.476687,530.158123 3879.069153,534.468768 3880.969571,539.610507 3883.029928,546.273883 3884.806629,551.527871 3886.768998,557.047050 3888.400539,561.635282 3889.997538,566.468390 3891.897838,571.599017 3893.461914,576.021083 3895.046925,580.320680 3896.511590,584.276699 3898.239037,588.930801 3900.349801,594.648799 3902.160044,599.546756 3904.000200,604.511155 3905.735259,609.198544 3907.365222,613.608923 3909.190411,618.540103 3911.286001,624.202652 3912.961023,628.734928 3914.921501,634.042911 3916.656542,638.730303 3918.248949,643.040960 3920.149295,648.182712"/>
    <poly id="1094503706" type="natural" color="140,196,107" fill="0" layer="-4.00" shape="3926.020932,646.130551 3924.120591,640.988797 3922.520854,636.678203 3920.785817,631.990808 3918.825248,626.671708 3917.150327,622.150546 3915.054742,616.487995 3913.229557,611.556813 3911.599598,607.146432 3909.864544,602.459041 3906.221488,592.596618 3904.103396,586.878681 3902.383287,582.224513 3900.918625,578.268493 3899.326285,573.968958"/>
    <poly id="1094503707" type="natural" color="140,196,107" fill="0" layer="-4.00" shape="3927.060416,564.144691 3928.652738,568.444234 3930.117478,572.411377 3931.837567,577.065553 3933.955634,582.783500 3935.765754,587.670351 3937.605980,592.645877 3939.333680,597.333340 3940.970954,601.743666 3942.788783,606.674920 3944.884343,612.337482 3946.559244,616.858651 3948.527124,622.177698 3950.262141,626.865100 3951.854524,631.175766 3953.754747,636.306414"/>
    <poly id="1094503708" type="natural" color="140,196,107" fill="0" layer="-4.00" shape="3958.448175,634.553577 3956.547860,629.411812 3954.955480,625.101144 3953.220467,620.413740 3951.252687,615.105808 3949.577693,610.573521 3947.482137,604.910958 3945.664311,599.979702 3944.034375,595.569312 3942.299344,590.881911 3940.459219,585.917499 3938.649006,581.019531 3936.530943,575.301582 3934.810858,570.647405 3933.346216,566.691376 3931.753898,562.391832 3930.150181,557.625474 3928.249815,552.483718 3926.652846,547.650600 3925.021429,543.073473 3923.059093,537.554280 3921.282424,532.300281 3919.626075,526.544969 3917.725690,521.403218 3916.133251,517.092562 3914.398173,512.405170 3912.437655,507.097189 3910.762599,502.564914 3908.666965,496.902365 3906.841738,491.971186 3905.211742,487.560808 3903.476647,482.873419 3901.636453,477.909021 3899.826173,473.011065 3897.715366,467.293068 3895.995217,462.638903 3894.523187,458.682949 3892.938144,454.383352"/>
    <poly id="1094503710" type="natural" color="140,196,107" fill="0" layer="-4.00" shape="3859.892559,465.810440 3861.484959,470.109964 3862.949675,474.065973 3864.669848,478.720128 3866.788020,484.438049 3868.598325,489.335995 3870.431308,494.311562 3872.166427,498.998941 3873.796447,503.409310 3875.621603,508.329362 3877.717266,513.991898 3879.392346,518.524164 3881.352893,523.832134 3883.087994,528.519516 3884.687790,532.830099 3886.588203,537.971839"/>
    <poly id="1094503711" type="natural" color="140,196,107" fill="0" layer="-4.00" shape="3905.113593,447.640494 3906.705962,451.940030 3908.170748,455.907167 3909.890888,460.561336 3912.009019,466.279274 3913.819194,471.166117 3915.652141,476.141699 3917.387228,480.829091 3919.017217,485.239474 3920.842435,490.170656 3922.938058,495.833209 3924.613010,500.354372 3926.573615,505.673474 3928.308684,510.360869 3929.908450,514.671464 3931.808730,519.802104 3934.099561,525.985461 3935.883553,531.239401 3937.845879,536.758598 3939.477287,541.335729 3941.074246,546.168851 3942.974602,551.310610 3944.324234,556.379342 3945.909210,560.678953 3947.373844,564.634985 3949.101254,569.289102 3951.211972,575.007119 3953.022176,579.905092 3954.862292,584.869507 3956.597314,589.556912 3958.227242,593.967306 3960.052392,598.898502 3962.147937,604.561070 3963.822826,609.082245 3965.783359,614.401361 3967.518363,619.088769 3969.110735,623.399439 3971.011040,628.541209"/>
    <poly id="1094503712" type="natural" color="140,196,107" fill="0" layer="-4.00" shape="3975.704384,626.777270 3973.811513,621.646552 3972.211714,617.324827 3970.476713,612.637418 3968.516281,607.329416 3966.841395,602.808240 3964.745757,597.134555 3962.920708,592.214473 3961.290783,587.804078 3959.555765,583.116672 3957.715556,578.141139 3955.905355,573.243164 3953.794641,567.525146 3952.067235,562.871027 3950.602604,558.914994 3949.017631,554.615381 3947.406592,549.849082 3945.506336,544.718437 3943.909380,539.885314 3942.277879,535.297065 3940.315557,529.777867 3938.538902,524.523862 3936.889904,518.768482 3934.989629,513.637841 3933.389770,509.316128 3931.662039,504.628667 3929.694201,499.320744 3928.019253,494.799580 3925.923537,489.125909 3924.105755,484.205777 3922.468435,479.795457 3920.740687,475.107999 3918.900409,470.132479 3917.090142,465.234518 3914.972016,459.516578 3913.251879,454.862408 3911.787194,450.906386 3910.194828,446.606848"/>
    <poly id="1097410546" type="building" color="255,230,230" fill="1" layer="-1.00" shape="4405.799621,531.384193 4402.637410,522.751302 4408.033695,520.826036 4410.910161,529.494742 4405.799621,531.384193"/>
    <poly id="1097410546#1" type="leisure" color="207,245,201" fill="1" layer="-2.00" shape="4405.799621,531.384193 4402.637410,522.751302 4408.033695,520.826036 4410.910161,529.494742 4405.799621,531.384193"/>
    <poly id="1097410546#2" type="sport" color="79,230,125" fill="1" layer="-2.00" shape="4405.799621,531.384193 4402.637410,522.751302 4408.033695,520.826036 4410.910161,529.494742 4405.799621,531.384193"/>
    <poly id="1097421652" type="amenity" color="237,199,199" fill="1" layer="-1.00" shape="4516.940541,825.872873 4507.309041,821.397714 4507.162326,823.099876 4515.526907,826.941140 4516.940541,825.872873"/>
    <poly id="1099689421" type="amenity" color="237,199,199" fill="1" layer="-1.00" shape="4413.945577,1553.366583 4413.937008,1551.521234 4423.535597,1551.460762 4423.544162,1553.306112 4413.945577,1553.366583"/>
    <poly id="1115078024" type="tourism" color="207,245,201" fill="1" layer="-2.00" shape="3981.559285,750.202977 3983.555843,755.455084 3984.798991,755.032949 3985.798911,757.847978 3985.990649,757.968599 3986.313339,758.810686 3986.130771,758.901209 3992.873491,777.763756 4001.397989,801.646833 4001.625235,801.633741 4001.919069,802.531666 4001.728685,802.566671 4001.849114,802.921369 4002.610360,802.747999 4003.726420,802.893940 4004.889380,803.372984 4005.748674,804.354932 4006.199121,805.551655 3997.990339,808.713510 3997.592192,807.627503 3977.887088,814.580148 3978.172723,815.378090 3977.632840,815.705177 3976.986711,815.621858 3976.429841,815.682284 3976.065094,815.907795 3975.244517,816.848758 3975.161539,817.427564 3975.299632,818.126735 3970.824815,819.699787 3951.473553,766.984456 3955.172587,765.596008 3953.270570,760.254152 3964.464769,756.288081 3965.156479,758.238660 3964.981438,758.351352 3965.402562,759.548327 3966.419042,759.205978 3966.343578,758.962060 3970.328344,757.537787 3970.542277,757.680448 3971.580081,757.260095 3971.174978,756.218618 3971.013734,756.231137 3970.453453,754.212713 3981.559285,750.202977"/>
    <poly id="1117314921" type="amenity" color="237,199,199" fill="1" layer="-1.00" shape="4405.390042,769.858359 4404.589992,771.488334 4413.918398,775.665770 4414.697215,774.124915 4405.390042,769.858359"/>
    <poly id="1117314922" type="amenity" color="237,199,199" fill="1" layer="-1.00" shape="4389.260790,764.594502 4390.023785,762.920376 4405.390042,769.858359 4404.589992,771.488334 4389.260790,764.594502"/>
    <poly id="1117542019" type="amenity" color="237,199,199" fill="1" layer="-1.00" shape="4363.479126,794.132310 4366.044069,793.898967 4364.628680,783.705769 4362.100496,783.949913 4363.479126,794.132310"/>
    <poly id="1117645568" type="amenity" color="237,199,199" fill="1" layer="-1.00" shape="4346.267240,797.693694 4346.629938,796.378759 4336.312618,790.642471 4335.658017,792.126681 4346.267240,797.693694"/>
    <poly id="1117654896" type="building" color="255,230,230" fill="0" layer="-1.00" shape="3276.822139,1183.756726 3281.344240,1205.061555 3287.237073,1233.780482 3285.840656,1237.594823 3275.986364,1239.493810 3274.279496,1242.199189 3270.894704,1247.565225 3266.953024,1253.814423 3267.837803,1258.509125 3268.668700,1262.915260 3269.269712,1262.876606 3271.632357,1264.678959 3277.580977,1268.128355 3279.667001,1269.332831 3284.325200,1268.658077 3288.946148,1267.916953 3293.750669,1260.548460 3298.323683,1253.537757 3297.330680,1248.210333 3296.422063,1243.304614 3297.563629,1241.360184 3298.681317,1238.370964 3299.026916,1236.811532 3299.203561,1235.220238 3299.094770,1232.030607 3290.296919,1189.896785"/>
    <poly id="1117941577" type="amenity" color="237,199,199" fill="1" layer="-1.00" shape="4423.947031,830.486225 4423.213657,832.193443 4390.713948,819.166431 4391.418746,817.548392 4423.947031,830.486225"/>
    <poly id="1121917231" type="amenity" color="237,199,199" fill="1" layer="-1.00" shape="3057.492929,1720.014287 3058.206537,1720.274774 3058.699187,1720.426047 3059.814895,1720.549566 3060.673870,1720.664243 3061.247374,1720.837034 3061.595050,1721.178582 3061.675225,1722.778728 3061.625671,1722.979274 3061.471592,1722.969522 3060.750357,1722.675752 3059.619393,1722.485665 3057.982100,1722.255598 3057.665132,1722.069417 3057.487184,1721.848652 3057.397028,1721.604876 3057.332404,1720.104646 3057.360749,1719.993225 3057.492929,1720.014287"/>
    <poly id="1121917231#1" type="building" color="255,230,230" fill="1" layer="-1.00" shape="3057.492929,1720.014287 3058.206537,1720.274774 3058.699187,1720.426047 3059.814895,1720.549566 3060.673870,1720.664243 3061.247374,1720.837034 3061.595050,1721.178582 3061.675225,1722.778728 3061.625671,1722.979274 3061.471592,1722.969522 3060.750357,1722.675752 3059.619393,1722.485665 3057.982100,1722.255598 3057.665132,1722.069417 3057.487184,1721.848652 3057.397028,1721.604876 3057.332404,1720.104646 3057.360749,1719.993225 3057.492929,1720.014287"/>
    <poly id="1121917232" type="amenity" color="237,199,199" fill="1" layer="-1.00" shape="3046.068078,1717.525260 3046.781686,1717.785745 3047.274436,1717.948133 3048.390144,1718.071650 3049.249120,1718.186325 3049.822625,1718.359115 3050.170302,1718.700663 3050.250480,1720.300808 3050.200926,1720.501354 3050.046847,1720.491603 3049.325611,1720.197834 3048.194647,1720.007750 3046.557254,1719.766570 3046.240285,1719.580389 3046.062435,1719.370741 3045.972180,1719.115849 3045.907651,1717.626735 3045.935897,1717.504198 3046.068078,1717.525260"/>
    <poly id="1121917232#1" type="building" color="255,230,230" fill="1" layer="-1.00" shape="3046.068078,1717.525260 3046.781686,1717.785745 3047.274436,1717.948133 3048.390144,1718.071650 3049.249120,1718.186325 3049.822625,1718.359115 3050.170302,1718.700663 3050.250480,1720.300808 3050.200926,1720.501354 3050.046847,1720.491603 3049.325611,1720.197834 3048.194647,1720.007750 3046.557254,1719.766570 3046.240285,1719.580389 3046.062435,1719.370741 3045.972180,1719.115849 3045.907651,1717.626735 3045.935897,1717.504198 3046.068078,1717.525260"/>
    <poly id="1121917233" type="building" color="255,230,230" fill="1" layer="-1.00" shape="3113.771559,1725.585801 3113.646266,1726.342870 3113.520875,1727.088822 3114.359865,1728.259804 3115.235123,1729.385997 3115.998873,1729.512642 3116.762524,1729.628171 3118.299822,1728.502860 3115.308759,1724.449374 3114.543874,1725.023113 3113.771559,1725.585801"/>
    <poly id="1121917233#1" type="shop" color="237,199,255" fill="1" layer="-1.00" shape="3113.771559,1725.585801 3113.646266,1726.342870 3113.520875,1727.088822 3114.359865,1728.259804 3115.235123,1729.385997 3115.998873,1729.512642 3116.762524,1729.628171 3118.299822,1728.502860 3115.308759,1724.449374 3114.543874,1725.023113 3113.771559,1725.585801"/>
    <poly id="1128097821" type="building" color="255,230,230" fill="0" layer="-1.00" shape="4465.818278,592.800154 4472.534515,593.409382 4471.831999,588.479482 4435.912920,586.498554 4435.208880,589.061525 4434.092016,593.084376"/>
    <poly id="1144037197" type="amenity" color="237,199,199" fill="1" layer="-1.00" shape="4441.220195,547.832429 4443.271915,548.459551 4441.480516,555.067349 4440.940077,557.039710 4439.105064,563.692353 4437.061354,563.142983 4439.422039,554.506989 4441.220195,547.832429"/>
    <poly id="1146320578" type="amenity" color="237,199,199" fill="1" layer="-1.00" shape="2893.805241,1174.641443 2899.323516,1185.742796 2900.988155,1184.905340 2895.418155,1173.759977 2893.805241,1174.641443"/>
    <poly id="1168838602" type="amenity" color="237,199,199" fill="1" layer="-1.00" shape="4349.442186,567.199855 4333.385737,572.996934 4334.085823,575.080888 4349.131817,569.481516 4349.442186,567.199855"/>
    <poly id="1168838604" type="amenity" color="237,199,199" fill="1" layer="-1.00" shape="4424.805582,541.014541 4424.593300,539.359937 4413.152443,543.727409 4413.744561,545.200868 4424.805582,541.014541"/>
    <poly id="1171746979" type="amenity" color="237,199,199" fill="1" layer="-1.00" shape="4336.089766,731.668720 4310.331716,717.205490 4309.507957,718.635578 4335.796427,733.372152 4336.089766,731.668720"/>
    <poly id="1190086329" type="amenity" color="237,199,199" fill="1" layer="-1.00" shape="4623.487761,810.161211 4624.988399,811.537963 4640.133751,806.449898 4641.236442,804.183694 4623.487761,810.161211"/>
    <poly id="1190236604" type="amenity" color="237,199,199" fill="1" layer="-1.00" shape="4612.508563,822.128343 4614.702085,823.910477 4615.198567,831.343484 4613.427107,833.448676 4612.508563,822.128343"/>
    <poly id="1190236605" type="parking" color="184,184,179" fill="1" layer="-1.00" shape="4646.941982,804.134775 4659.250033,800.016033 4660.455213,797.726721 4644.819803,802.974569 4646.941982,804.134775"/>
    <poly id="1191696477" type="amenity" color="237,199,199" fill="1" layer="-1.00" shape="4612.508563,822.128343 4614.702085,823.910477 4614.651875,822.332295 4613.332489,821.565425 4612.455406,821.061568 4612.508563,822.128343"/>
    <poly id="1208375790" type="water" color="181,209,209" fill="1" layer="-4.00" shape="4033.217658,559.697850 4032.687975,559.513460 4032.123263,559.518363 4031.589527,559.711987 4031.159914,560.071461 4030.892420,560.518464 4030.772087,561.019774 4030.820627,561.541852 4031.030127,562.018064 4031.378200,562.404136 4031.827886,562.667040 4032.342225,562.773744 4032.855117,562.713706 4033.329988,562.498359 4033.715598,562.139267 4033.982706,561.647800 4034.065887,561.091227 4033.951052,560.536374 4033.660782,560.049746 4033.217658,559.697850"/>
    <poly id="1209423600" type="natural" color="140,196,107" fill="0" layer="-4.00" shape="3341.100427,477.458883 3143.179663,576.590590"/>
    <poly id="1209423660" type="natural" color="140,196,107" fill="0" layer="-4.00" shape="3069.215452,546.406449 3056.039879,519.597687"/>
    <poly id="1209423661" type="natural" color="140,196,107" fill="0" layer="-4.00" shape="3051.193990,521.508274 3064.961023,548.845405"/>