<?xml version="1.0"?>

<routes> <!-- The opening tag -->

   <!-- Vehicle types -->
   <vType id="passenger" length="5.0" width="2.0" maxSpeed="70.0" accel="2.6" decel="4.5" sigma="0.5"/>

   <!-- Routes + associated vehicles & flows -->
   <route id="trip-0" color="Magenta" edges="4039403#0 4039403#3 194586818#0 18229612#0 18229612#4 478835111#0 505388256#0 505388256#2 4039870#0 4039870#1 69315571#0 69315571#3 69315571#6 107215058#0 24658939#0 24658939#4 52033077#6 542064424#3 138177194#0 294826459#3"/>
   <vehicle id="vehicle-0" type="passenger" color="White" depart="0.0" route="trip-0"/>

   <route id="trip-1" color="Magenta" edges="4251071#2 4251071#4 4251071#5 54381007#0 187019915#0 187019915#3 24658850#0 24658850#2 69315571#6 107215058#0 24658939#0 24658939#4 52033077#6 499300051#0 231321932#0 16405595#0"/>
   <vehicle id="vehicle-1" type="passenger" color="White" depart="0.01" route="trip-1"/>

   <route id="trip-2" color="Magenta" edges="-25325260#5 25325260#3 83537399 13470545#0 13470545#6 13470545#8 13470545#12 187019916#0 194608795#0 194608795#1 54661710#0 123487826#0 171873127#0 197515292#0 197515292#3"/>
   <vehicle id="vehicle-2" type="passenger" color="White" depart="0.02" route="trip-2"/>

   <route id="trip-3" color="Magenta" edges="-34684074#2 34684074#0 68915101 374058318 22696929#0 890788332#0 54186296#0 54186296#1 -379447185 -69315569#1 -68915107#3 70995649 83537399 13470545#0 13470545#6 13470545#8 13470545#12 187019916#0 194608795#0 194608795#1 54661710#0 4263229#0 4263229#3 4263229#4 123487843 -18229335#2 193939957#0 193939957#1 1065429694 1012555086 4263232#0 -555208904#3 34681800#0 34681800#2"/>
   <vehicle id="vehicle-3" type="passenger" color="White" depart="0.03" route="trip-3"/>

   <route id="trip-4" color="Magenta" edges="24697899#0 4263230#3 23157614#0 112885547#0 321632661#6 34230336#0 664867408#0 660547650#0 653539560#0 54572725 187019915#3 478835108#11 478835108#14 478835108#17 -478835108#17"/>
   <vehicle id="vehicle-4" type="passenger" color="White" depart="0.04" route="trip-4"/>

   <route id="trip-5" color="Magenta" edges="4263220#0 4263219#3 54046087#0 1065429694 1012555086 1274939132 18229335#0 4263207#0 4263207#1"/>
   <vehicle id="vehicle-5" type="passenger" color="White" depart="0.05" route="trip-5"/>

   <route id="trip-6" color="Magenta" edges="823709491#2 83547410 197336177#1 330418124#0 374059571 24016072 197336176#0 197336176#2 864718727#0 68915101 374058318 22696929#0 890788332#0 54186296#0 54186296#1 -379447185 -69315569#1 -68915107#3 -70995648#2 -31956711#3 -478835108#17 -478835108#15 -478835108#13 -478835108#8 -478835108#6 -478835108#3 478835109#0"/>
   <vehicle id="vehicle-6" type="passenger" color="White" depart="0.06" route="trip-6"/>

   <route id="trip-7" color="Magenta" edges="541950959#0 17243687#0 37064089#2 -24659034#2 24659034#0"/>
   <vehicle id="vehicle-7" type="passenger" color="White" depart="0.07" route="trip-7"/>

   <route id="trip-8" color="Magenta" edges="194608797#0 29712377#0 29712377#2 29712377#4 71122994#0 4039403#3 194586818#0 18229612#0 18229612#4 478835111#0 505388256#0 505388256#2 4039870#0 4039870#1 69315571#0 69315571#3 69315571#6 107215058#0 24658939#0 1268740945#0"/>
   <vehicle id="vehicle-8" type="passenger" color="White" depart="0.08" route="trip-8"/>

   <route id="trip-9" color="Magenta" edges="675036502#4 54381007#0 187019915#0 187019915#3 24658850#0 24658850#2 69315571#6 69315571#8 69315571#9 34678160#0 4040056#2 678797214#0 70995643#2 251058109#1 69315569#0 879212260 -379447184 -54186296#0"/>
   <vehicle id="vehicle-9" type="passenger" color="White" depart="0.09" route="trip-9"/>

</routes> <!-- The closing tag -->
